%mem=1600mb
%nprocs=4
#N B3LYP/6-311G(d,p) OPT

Name ModRedundant - Minimalist working constrained optimisation

0 1
C         -0.44340        1.99502        1.41389
N          0.32657        2.65122        0.36206
C         -0.26338        2.92612       -0.97060
C         -0.90511        4.32588       -0.97845
C         -1.36910        1.92205       -1.36812
C          0.86170        2.74873       -2.01110
C          2.06611        3.66141       -1.78299
C          1.91951        5.00505       -2.50889
C          2.38175        3.82077       -0.30905
C          1.52544        3.30823        0.69202
C          1.95112        3.47521        2.02151
C          3.15110        4.13112        2.35172
C          3.98845        4.64187        1.36075
C          5.28251        5.24596        1.73541
C          5.94322        6.18650        1.03633
C          7.22242        6.68800        1.44002
C          8.03874        6.33432        2.50169
C          9.25178        7.08035        2.55875
C          9.35401        8.02037        1.55326
S          7.98688        7.93617        0.51795
C          3.59852        4.46088        0.03421
C         17.99325       16.28919       -1.73877
C         17.14015       15.47252       -2.50246
C         16.27969       14.54722       -1.89629
C         18.06266       16.03700       -0.36208
C         17.23921       15.08984        0.23821
C         16.27550       14.40200       -0.50618
C         15.19567       13.72193        0.21138
C         14.55362       14.14096        1.34727
C         13.53078       13.29158        1.77676
N         12.86929       13.65923        2.87376
S         13.60719       15.11935        3.29884
N         14.75399       15.24330        2.07042
C         13.34433       12.18661        0.97577
C         12.37772       11.07979        1.08865
C         11.80736       10.46724       -0.03899
C         10.84078        9.45496        0.09799
C         10.40890        9.03427        1.36065
C         11.00178        9.62913        2.48286
C         11.96971       10.63146        2.35183
S         14.50950       12.23445       -0.31827
C         20.18558       21.49408       -5.11212
N         20.70298       20.88590       -3.89171
C         21.62992       21.60693       -2.99157
C         20.83069       22.39667       -1.93798
C         22.52030       22.61743       -3.74426
C         22.58851       20.55785       -2.38786
C         21.88086       19.45213       -1.60517
C         21.72115       19.80945       -0.11925
C         20.58419       19.04445       -2.27599
C         20.05129       19.75719       -3.37054
C         18.85003       19.27615       -3.91563
C         18.18930       18.15802       -3.39687
C         18.71950       17.43212       -2.32788
C         19.92997       17.89137       -1.79288
H         -1.33530        1.48213        1.04790
H         -0.78239        2.70867        2.17152
H          0.16401        1.21716        1.89241
H         -1.83578        4.33551       -0.39891
H         -1.14801        4.64091       -1.99957
H         -0.26592        5.08956       -0.52583
H         -2.27769        2.05124       -0.76816
H         -1.03511        0.88471       -1.25945
H         -1.67046        2.06869       -2.41281
H          0.48284        2.86351       -3.03423
H          1.22017        1.70923       -1.94256
H          2.92641        3.15267       -2.24192
H          1.14846        5.64211       -2.07095
H          1.67172        4.84907       -3.56402
H          2.85270        5.57700       -2.47755
H          1.35229        3.10762        2.84924
H          3.41510        4.22978        3.40233
H          5.69577        4.85421        2.66334
H          5.50511        6.59509        0.12742
H          7.78316        5.57102        3.22523
H         10.00433        6.94034        3.32606
H          4.25639        4.79282       -0.76646
H         17.08722       15.59189       -3.58281
H         15.56902       14.01353       -2.52267
H         18.69616       16.63278        0.29033
H         17.29640       14.97280        1.31882
H         12.08339       10.77817       -1.04216
H         10.43389        9.00785       -0.80699
H         10.70520        9.33668        3.48781
H         12.38275       11.07179        3.25553
H         20.79401       22.32182       -5.47990
H         19.17150       21.88202       -4.96976
H         20.18058       20.75540       -5.92349
H         20.32828       23.25957       -2.38973
H         21.48867       22.77145       -1.14588
H         20.03801       21.80372       -1.47119
H         21.94485       23.47548       -4.10976
H         23.01905       22.15302       -4.60194
H         23.29535       23.02322       -3.08352
H         23.36295       21.02906       -1.77129
H         23.12369       20.07358       -3.22035
H         22.54547       18.57663       -1.63793
H         21.00080       20.61164        0.05358
H         22.68108       20.12242        0.30664
H         21.37742       18.94853        0.46405
H         18.36710       19.78105       -4.74665
H         17.23221       17.88703       -3.83528
H         20.39246       17.34671       -0.97225

